650
# CELL(abcABC):  113.38357   113.38357   113.38357    90.00000    90.00000    90.00000  Step:        1000  Bead:       0 x_centroid{angstrom}  cell{atomic_unit}
       C  5.70279e+00  2.36235e+01  3.53039e+01
       O  4.63971e+00  2.37133e+01  3.57658e+01
       O  6.76590e+00  2.35310e+01  3.48439e+01
       C  1.23128e+01  5.78987e+01  5.15368e+01
       O  1.14857e+01  5.75654e+01  5.07906e+01
       O  1.31398e+01  5.82216e+01  5.22868e+01
       C  5.52150e+01  3.80769e+01  1.32934e+01
       O  5.53470e+01  3.81773e+01  1.21426e+01
       O  5.50858e+01  3.79760e+01  1.44442e+01
       C  5.17508e+01  2.06710e+01  5.01438e+01
       O  5.19533e+01  2.15626e+01  5.08618e+01
       O  5.15488e+01  1.97733e+01  4.94339e+01
       C  1.66938e+01  5.76592e+01  1.89841e+01
       O  1.57556e+01  5.83331e+01  1.88546e+01
       O  1.76364e+01  5.69898e+01  1.91060e+01
       C  7.71042e+00  4.88737e+01  1.42949e+01
       O  8.26254e+00  4.96124e+01  1.50027e+01
       O  7.15280e+00  4.81418e+01  1.35846e+01
       C  1.25793e+01  2.32693e+01  5.52761e+01
       O  1.23273e+01  2.42191e+01  5.46559e+01
       O  1.28402e+01  2.23239e+01  5.59012e+01
       C  1.99539e+00  1.07169e+01  4.73465e+00
       O  8.65456e-01  1.04678e+01  4.84389e+00
       O  3.12512e+00  1.09659e+01  4.62494e+00
       C  3.00672e+01  5.47388e+01  4.77071e+01
       O  3.07078e+01  5.56832e+01  4.79240e+01
       O  2.94271e+01  5.37924e+01  4.74907e+01
       C  5.38326e+01  2.38411e+01  5.13081e+01
       O  5.32949e+01  2.44251e+01  5.04586e+01
       O  5.43767e+01  2.32616e+01  5.21560e+01
       C  5.86419e+00  1.15801e+01  2.61447e+01
       O  5.63616e+00  1.25342e+01  2.55214e+01
       O  6.09237e+00  1.06311e+01  2.67763e+01
       C  2.90264e+01  5.27841e+01  2.06221e+01
       O  2.91887e+01  5.24018e+01  1.95368e+01
       O  2.88629e+01  5.31660e+01  2.17075e+01
       C  4.12925e+01  3.89448e+01  3.65246e+01
       O  4.03037e+01  3.92484e+01  3.70546e+01
       O  4.22811e+01  3.86410e+01  3.59942e+01
       C  4.54699e+01  5.83296e+01  6.87786e+00
       O  4.55788e+01  5.81313e+01  5.73792e+00
       O  4.53598e+01  5.85279e+01  8.01777e+00
       C  6.95287e+00  9.56337e+00  2.94135e+01
       O  6.82006e+00  8.44713e+00  2.91179e+01
       O  7.08754e+00  1.06772e+01  2.97179e+01
       C  1.88339e+01  1.50149e+01  2.89874e+01
       O  1.85693e+01  1.59075e+01  2.82902e+01
       O  1.90936e+01  1.41181e+01  2.96792e+01
       C  4.17586e+01  5.30791e+01  4.22663e+01
       O  4.06207e+01  5.28476e+01  4.22149e+01
       O  4.28960e+01  5.33146e+01  4.23107e+01
       C  4.38756e+01  5.45965e+01  3.30061e+01
       O  4.36698e+01  5.42892e+01  3.19045e+01
       O  4.40810e+01  5.49033e+01  3.41087e+01
       C  3.81771e+01  4.02800e+01  5.34574e+01
       O  3.74307e+01  4.10348e+01  5.39310e+01
       O  3.89254e+01  3.95208e+01  5.29926e+01
       C  3.69495e+01  7.13174e+00  1.53874e+01
       O  3.59413e+01  7.47769e+00  1.49237e+01
       O  3.79561e+01  6.77547e+00  1.58472e+01
       C  5.70177e+01  2.04410e+01  2.34313e+01
       O  5.68453e+01  2.04874e+01  2.45803e+01
       O  5.71863e+01  2.03917e+01  2.22824e+01
       C  8.10748e+00  4.19408e+01  1.30954e+01
       O  8.45097e+00  4.12556e+01  1.22223e+01
       O  7.76460e+00  4.26250e+01  1.39708e+01
       C  6.27377e+00  4.52551e+01  1.39650e+01
       O  6.19687e+00  4.50328e+01  1.28264e+01
       O  6.34234e+00  4.54736e+01  1.51049e+01
       C  1.82328e+01  3.63870e+01  2.09315e+01
       O  1.77198e+01  3.72558e+01  2.03544e+01
       O  1.87473e+01  3.55166e+01  2.15051e+01
       C  1.83721e+01  2.30034e+00  2.90029e+01
       O  1.78462e+01  2.64495e+00  2.99801e+01
       O  1.88942e+01  1.95172e+00  2.80241e+01
       C  1.49126e+01  4.21255e+01  1.24595e+01
       O  1.59016e+01  4.15196e+01  1.23805e+01
       O  1.39229e+01  4.27305e+01  1.25387e+01
       C  2.71220e+01  5.48512e+01  4.56419e+01
       O  2.78049e+01  5.57920e+01  4.56901e+01
       O  2.64444e+01  5.39089e+01  4.55974e+01
       C  2.11431e+01  4.16505e+00  2.79615e+01
       O  2.20887e+01  3.57718e+00  2.76277e+01
       O  2.01979e+01  4.75188e+00  2.82981e+01
       C  4.05608e+01  3.05161e+01  5.22285e+01
       O  3.99777e+01  2.97156e+01  5.28387e+01
       O  4.11589e+01  3.13049e+01  5.16191e+01
       C  3.83889e+01  5.94602e+01  2.14855e+01
       O  3.93691e+01  5.99499e+01  2.18739e+01
       O  3.74079e+01  5.89715e+01  2.10994e+01
       C  2.05041e+01  1.82136e+01  2.90114e+01
       O  2.12719e+01  1.73457e+01  2.89186e+01
       O  1.97345e+01  1.90787e+01  2.91163e+01
       C  3.12300e+01  4.21504e+01  5.11173e+01
       O  3.01853e+01  4.18709e+01  5.15438e+01
       O  3.22762e+01  4.24264e+01  5.06926e+01
       C  4.45256e+01  3.68776e+01  3.49174e+01
       O  4.51378e+01  3.78024e+01  3.45687e+01
       O  4.39181e+01  3.59501e+01  3.52667e+01
       C  5.61614e+01  4.29501e+01  2.41337e+01
       O  5.63440e+01  4.19140e+01  2.46272e+01
       O  5.59803e+01  4.39857e+01  2.36381e+01
       C  5.75781e+01  3.71245e+01  1.60015e+01
       O  5.71581e+01  3.70701e+01  1.70837e+01
       O  5.80034e+01  3.71764e+01  1.49207e+01
       C  2.06986e+01  5.47735e+01  1.01578e+01
       O  2.09600e+01  5.57319e+01  1.07620e+01
       O  2.04337e+01  5.38141e+01  9.55692e+00
       C  2.51270e+00  7.12243e+00  4.62856e+01
       O  1.45651e+00  6.71040e+00  4.60300e+01
       O  3.56894e+00  7.53453e+00  4.65408e+01
       C  7.01970e+00  5.60673e+01  3.32505e+01
       O  7.17684e+00  5.56518e+01  3.43243e+01
       O  6.86237e+00  5.64827e+01  3.21765e+01
       C  4.53433e+01  4.21664e+01  9.49691e+00
       O  4.58162e+01  4.11649e+01  9.84922e+00
       O  4.48707e+01  4.31681e+01  9.14530e+00
       C  1.74643e+01  3.55697e+01  2.44115e+01
       O  1.70171e+01  3.64728e+01  2.38317e+01
       O  1.79093e+01  3.46672e+01  2.49926e+01
       C  4.82808e+01  1.14788e+01  3.18815e+01
       O  4.82990e+01  1.13114e+01  3.30313e+01
       O  4.82503e+01  1.16591e+01  3.07338e+01
       C  2.90383e+01  7.09322e+00  9.44318e+00
       O  2.83319e+01  7.99309e+00  9.64692e+00
       O  2.97441e+01  6.19246e+00  9.23906e+00
       C  3.83167e+01  3.32634e+01  5.41741e+01
       O  3.92249e+01  3.26191e+01  5.38408e+01
       O  3.74121e+01  3.39126e+01  5.45093e+01
       C  1.82707e+01  2.91832e+01  4.35849e+01
       O  1.72441e+01  2.97166e+01  4.34780e+01
       O  1.92960e+01  2.86448e+01  4.36928e+01
       C  4.34187e+01  1.24468e+01  5.27642e+01
       O  4.45760e+01  1.25087e+01  5.26757e+01
       O  4.22617e+01  1.23857e+01  5.28530e+01
       C  3.64213e+01  5.61015e+01  4.40752e+01
       O  3.55350e+01  5.55838e+01  4.35308e+01
       O  3.73044e+01  5.66236e+01  4.46230e+01
       C  8.28240e+00  4.49475e+01  5.78992e+01
       O  8.51894e+00  4.50823e+01  5.67689e+01
       O  8.03691e+00  4.48092e+01  5.90270e+01
       C  3.57333e+01  3.00944e+01  5.40320e+01
       O  3.49617e+01  2.92686e+01  5.43046e+01
       O  3.65017e+01  3.09247e+01  5.37633e+01
       C  4.23721e+01  2.00501e+01  3.67172e+01
       O  4.17760e+01  2.01478e+01  3.77107e+01
       O  4.29639e+01  1.99520e+01  3.57221e+01
       C  4.00061e+01  9.13414e+00  1.29822e+01
       O  3.90147e+01  8.82549e+00  1.35047e+01
       O  4.09977e+01  9.44070e+00  1.24584e+01
       C  3.62383e+01  1.50924e+01  3.87472e+01
       O  3.72394e+01  1.45037e+01  3.87012e+01
       O  3.52356e+01  1.56788e+01  3.87931e+01
       C  4.89597e+00  3.06289e+01  9.78178e+00
       O  5.35312e+00  3.16816e+01  9.96444e+00
       O  4.43860e+00  2.95762e+01  9.59968e+00
       C  1.67735e+01  1.84299e+01  2.82644e+01
       O  1.67130e+01  1.82048e+01  2.94035e+01
       O  1.68321e+01  1.86391e+01  2.71223e+01
       C  1.29589e+01  1.82471e+01  2.77003e+01
       O  1.37524e+01  1.85432e+01  2.84963e+01
       O  1.21655e+01  1.79499e+01  2.69048e+01
       C  2.80337e+01  4.16713e+01  5.46410e+01
       O  2.81134e+01  4.05643e+01  5.49866e+01
       O  2.79593e+01  4.27819e+01  5.43062e+01
       C  5.50752e+01  1.06804e+01  3.28695e+01
       O  5.43151e+01  1.00807e+01  3.22262e+01
       O  5.58337e+01  1.12792e+01  3.35154e+01
       C  1.98899e+01  2.88007e+01  4.69825e+01
       O  2.05820e+01  2.79586e+01  4.73845e+01
       O  1.91936e+01  2.96410e+01  4.65808e+01
       C  3.13322e+01  2.34434e+01  5.21898e+01
       O  3.07754e+01  2.35537e+01  5.11758e+01
       O  3.18905e+01  2.33334e+01  5.32031e+01
       C  5.38848e+01  1.91813e+01  2.52042e+01
       O  5.34564e+01  1.95414e+01  2.62224e+01
       O  5.43116e+01  1.88227e+01  2.41835e+01
       C  4.45931e+01  5.95224e+01  1.07552e+01
       O  4.51902e+01  5.86721e+01  1.12764e+01
       O  4.39925e+01  6.03769e+01  1.02450e+01
       C  5.30876e+00  2.98291e+01  9.13384e-01
       O  4.27885e+00  2.94505e+01  5.30823e-01
       O  6.33868e+00  3.02076e+01  1.29639e+00
       C  3.48883e+01  4.90473e+01  3.07248e+01
       O  3.49386e+01  4.78886e+01  3.07988e+01
       O  3.48380e+01  5.02060e+01  3.06514e+01
       C  3.53144e+01  2.91751e+01  5.74978e+01
       O  3.60876e+01  2.99314e+01  5.70714e+01
       O  3.45410e+01  2.84207e+01  5.79255e+01
       C  1.66104e+01  2.31943e+01  2.62066e+01
       O  1.75036e+01  2.29175e+01  2.55162e+01
       O  1.57169e+01  2.34627e+01  2.69004e+01
       C  1.39138e+01  4.45225e+01  9.91120e+00
       O  1.29548e+01  4.51766e+01  9.97062e+00
       O  1.48761e+01  4.38717e+01  9.86225e+00
       C  3.45285e+01  5.33592e+00  4.51538e+01
       O  3.56336e+01  5.07048e+00  4.49121e+01
       O  3.34218e+01  5.60003e+00  4.53934e+01
       C  1.18115e+01  2.78676e+01  2.70649e+00
       O  1.21899e+01  2.83880e+01  3.67412e+00
       O  1.14324e+01  2.73466e+01  1.73920e+00
       C  2.74633e+01  4.07870e+01  5.08267e+01
       O  2.78194e+01  4.07655e+01  4.97205e+01
       O  2.71014e+01  4.08044e+01  5.19313e+01
       C  3.31786e+00  2.62446e+01  3.44037e+01
       O  2.25825e+00  2.63413e+01  3.48710e+01
       O  4.37747e+00  2.61501e+01  3.39350e+01
       C  5.33315e+01  2.08183e+01  5.35907e+01
       O  5.39457e+01  2.00586e+01  5.29603e+01
       O  5.27090e+01  2.15676e+01  5.42244e+01
       C  2.58705e+01  2.24774e+01  1.53891e+01
       O  2.60718e+01  2.23425e+01  1.65256e+01
       O  2.56685e+01  2.26123e+01  1.42526e+01
       C  3.64533e+01  2.68770e+01  3.36472e+01
       O  3.53280e+01  2.70567e+01  3.38758e+01
       O  3.75781e+01  2.66964e+01  3.34182e+01
       C  1.64138e+01  2.23594e-01  5.87627e+00
       O  1.70131e+01  1.21448e+00  5.97543e+00
       O  1.58072e+01 -7.62707e-01  5.77158e+00
       C  3.63414e+01  5.16038e+01  2.29997e+01
       O  3.58005e+01  5.07614e+01  2.35899e+01
       O  3.68835e+01  5.24458e+01  2.24100e+01
       C  3.22664e+01  6.74515e+00  5.11835e+01
       O  3.11869e+01  6.94227e+00  5.15653e+01
       O  3.33476e+01  6.54816e+00  5.08037e+01
       C  1.90007e+01  1.72110e+01  2.56001e+01
       O  1.97647e+01  1.79183e+01  2.61178e+01
       O  1.82427e+01  1.64992e+01  2.50809e+01
       C  1.65960e+01  4.07675e+01  1.53953e+01
       O  1.75678e+01  4.01294e+01  1.53704e+01
       O  1.56241e+01  4.14047e+01  1.54177e+01
       C  8.24163e+00  4.21974e+01  5.54945e+01
       O  8.47012e+00  4.23579e+01  5.43660e+01
       O  8.01655e+00  4.20406e+01  5.66242e+01
       C  1.03026e+01  4.09876e+01  4.55420e+01
       O  1.01400e+01  4.11877e+01  4.44087e+01
       O  1.04650e+01  4.07876e+01  4.66751e+01
       C  2.37759e+01  5.24283e+01  1.16725e+01
       O  2.29847e+01  5.32341e+01  1.13971e+01
       O  2.45667e+01  5.16225e+01  1.19483e+01
       C  2.94698e+01  4.81379e+01  1.92523e+00
       O  3.03918e+01  4.88143e+01  1.71614e+00
       O  2.85478e+01  4.74622e+01  2.13429e+00
       C  3.99810e+01  1.32782e+01  3.88357e+01
       O  3.95857e+01  1.24753e+01  3.95774e+01
       O  4.03868e+01  1.40767e+01  3.80947e+01
       C  5.14599e+01  4.73640e+01  2.98991e+01
       O  5.23136e+01  4.65772e+01  2.99578e+01
       O  5.06039e+01  4.81480e+01  2.98394e+01
       C  1.40621e+01  5.52100e+01  2.10397e+01
       O  1.49926e+01  5.58290e+01  2.07194e+01
       O  1.31317e+01  5.45898e+01  2.13567e+01
       C  5.76471e+01  2.37857e+01  1.45876e+01
       O  5.77604e+01  2.29678e+01  1.37691e+01
       O  5.75351e+01  2.46054e+01  1.54036e+01
       C  5.08431e+01  5.87830e+01  4.57343e+01
       O  4.97606e+01  5.90892e+01  4.54423e+01
       O  5.19247e+01  5.84758e+01  4.60278e+01
       C  3.40810e+01  2.76962e+01  1.20812e+01
       O  3.34653e+01  2.86732e+01  1.19497e+01
       O  3.46965e+01  2.67194e+01  1.22127e+01
       C  2.64942e+01  4.93485e+01  1.23912e+01
       O  2.59447e+01  4.87406e+01  1.15667e+01
       O  2.70504e+01  4.99481e+01  1.32171e+01
       C  1.53395e+01  2.18944e+01  2.95024e+01
       O  1.60372e+01  2.11832e+01  2.89030e+01
       O  1.46378e+01  2.26066e+01  3.00957e+01
       C  4.29043e+01  2.05365e+00  4.79124e+01
       O  4.34721e+01  2.81408e+00  4.85841e+01
       O  4.23396e+01  1.29319e+00  4.72392e+01
       C  3.77682e+01  5.27101e+01  3.53606e+00
       O  3.73051e+01  5.24537e+01  2.50137e+00
       O  3.82322e+01  5.29672e+01  4.57007e+00
       C  5.09984e+01  4.91245e+01  5.62253e+01
       O  5.06140e+01  4.94030e+01  5.72861e+01
       O  5.13830e+01  4.88456e+01  5.51647e+01
       C  4.17448e+01  4.50311e-01  1.99989e+01
       O  4.10118e+01 -6.04827e-02  1.92550e+01
       O  4.24767e+01  9.59977e-01  2.07446e+01
       C  4.11254e+01  5.87682e+00  5.40997e+01
       O  4.19847e+01  6.65902e+00  5.41224e+01
       O  4.02624e+01  5.09800e+00  5.40848e+01
       C  3.16032e+01  3.86717e+00  8.80045e+00
       O  3.07197e+01  3.12688e+00  8.95100e+00
       O  3.24937e+01  4.59851e+00  8.64775e+00
       C  5.23848e+01  3.57655e+01  1.15833e+01
       O  5.27907e+01  3.64015e+01  1.24683e+01
       O  5.19796e+01  3.51276e+01  1.07009e+01
       C  5.63550e+01  2.03852e+01  1.49381e+01
       O  5.62317e+01  2.12077e+01  1.57504e+01
       O  5.64762e+01  1.95620e+01  1.41269e+01
       C  4.40916e+01  2.01339e+01  3.99493e+01
       O  4.35876e+01  2.01323e+01  4.09969e+01
       O  4.45934e+01  2.01346e+01  3.89007e+01
       C  2.21449e+01  1.21218e+00  2.97469e+01
       O  2.12445e+01  1.87572e+00  3.00651e+01
       O  2.30435e+01  5.46607e-01  2.94314e+01
       C  8.00532e+00  1.61305e+01  4.63851e+00
       O  6.92348e+00  1.63441e+01  5.00525e+00
       O  9.08697e+00  1.59174e+01  4.27074e+00
       C  1.53771e+01  5.62830e+01  6.17936e+00
       O  1.43423e+01  5.62882e+01  5.65039e+00
       O  1.64112e+01  5.62678e+01  6.71074e+00
       C  5.33184e+01  4.67274e+01  2.69554e+01
       O  5.35608e+01  4.56237e+01  2.66849e+01
       O  5.30785e+01  4.78335e+01  2.72228e+01
       C  2.09950e+01  3.11724e+01  4.45714e+01
       O  2.01949e+01  3.16146e+01  4.38534e+01
       O  2.17934e+01  3.07283e+01  4.52899e+01
       C  3.91839e+01  5.31788e+01  4.48421e+01
       O  3.82271e+01  5.36543e+01  4.43838e+01
       O  4.01395e+01  5.27036e+01  4.53028e+01
       C  4.45377e+01  5.57600e+01  3.74248e+01
       O  4.55819e+01  5.62022e+01  3.71691e+01
       O  4.34950e+01  5.53205e+01  3.76916e+01
       C  3.59045e+01  8.54032e+00  2.61406e+01
       O  3.63278e+01  9.59553e+00  2.63798e+01
       O  3.54808e+01  7.48478e+00  2.59007e+01
       C  1.77488e+01  3.96054e+01  1.84835e+01
       O  1.66101e+01  3.95337e+01  1.82605e+01
       O  1.88884e+01  3.96884e+01  1.86990e+01
       C  5.38256e+01  5.29215e+01  4.99746e+01
       O  5.28989e+01  5.31125e+01  5.06495e+01
       O  5.47522e+01  5.27306e+01  4.92998e+01
       C  9.56057e+00  5.80303e+01  4.85177e+01
       O  9.18142e+00  5.69317e+01  4.85098e+01
       O  9.93304e+00  5.91317e+01  4.85175e+01
       C  4.87814e+00  5.53668e+01  4.15505e+01
       O  6.01333e+00  5.52294e+01  4.13432e+01
       O  3.74293e+00  5.55039e+01  4.17580e+01
       C  3.93250e+01  9.23624e+00  1.49509e+00
       O  3.99492e+01  9.01082e+00  2.44905e+00
       O  3.87011e+01  9.46135e+00  5.40863e-01
       C  4.13873e+01  3.68699e+00  5.08436e+01
       O  4.08625e+01  2.88814e+00  5.01820e+01
       O  4.19089e+01  4.48637e+00  5.15069e+01
       C  5.53944e+00  8.78964e+00  2.31119e+01
       O  5.52540e+00  7.81018e+00  2.24867e+01
       O  5.55342e+00  9.76945e+00  2.37370e+01
       C  2.11517e+01  3.34528e+01  3.29354e+00
       O  2.12677e+01  3.23219e+01  3.05241e+00
       O  2.10352e+01  3.45836e+01  3.53489e+00
       C  2.71026e+01  1.64673e+01  4.99268e+01
       O  2.75111e+01  1.74540e+01  5.03850e+01
       O  2.66942e+01  1.54817e+01  4.94651e+01
       C  3.87368e+01  3.68425e+01  5.46580e+01
       O  3.79635e+01  3.75659e+01  5.51376e+01
       O  3.95112e+01  3.61173e+01  5.41828e+01
       C  1.53697e+01  1.43663e+01  3.97338e+01
       O  1.52633e+01  1.35995e+01  4.06016e+01
       O  1.54680e+01  1.51361e+01  3.88689e+01
       C  2.66233e+01  5.31038e+01  4.86416e+01
       O  2.66161e+01  5.42666e+01  4.86638e+01
       O  2.66296e+01  5.19422e+01  4.86240e+01
       C  1.66192e+01  2.14302e+01  3.29203e+01
       O  1.61285e+01  2.11032e+01  3.39219e+01
       O  1.71129e+01  2.17647e+01  3.19222e+01
       C  5.12797e+01  2.50854e+01  4.83307e+01
       O  5.09560e+01  2.39688e+01  4.83540e+01
       O  5.15999e+01  2.62028e+01  4.83033e+01
       C  3.35535e+01  7.55140e+00  4.78709e+01
       O  3.24492e+01  7.77907e+00  4.81534e+01
       O  3.46587e+01  7.32745e+00  4.75878e+01
       C  2.68001e+01  3.13411e+01  3.40942e+01
       O  2.59837e+01  3.11465e+01  3.48982e+01
       O  2.76173e+01  3.15270e+01  3.32883e+01
       C  6.32476e+00  3.62642e+01  5.06483e+01
       O  7.42861e+00  3.60520e+01  5.09445e+01
       O  5.22104e+00  3.64676e+01  5.03458e+01
       C  1.00974e+01  4.63602e+01  1.63374e+01
       O  9.42930e+00  4.66703e+01  1.54380e+01
       O  1.07673e+01  4.60519e+01  1.72354e+01
       C  5.48709e+01  3.01157e+01  1.93316e+01
       O  5.46516e+01  3.05338e+01  1.82696e+01
       O  5.50888e+01  2.96971e+01  2.03935e+01
       C  1.89001e+01  5.75859e+01  7.76245e+00
       O  1.93316e+01  5.65899e+01  8.17800e+00
       O  1.84769e+01  5.85872e+01  7.34978e+00
       C  1.28410e+01  1.17767e+01  4.03865e+01
       O  1.30590e+01  1.10406e+01  4.12591e+01
       O  1.26186e+01  1.25097e+01  3.95121e+01
       C  5.42306e+01  4.21063e+00  1.81098e+01
       O  5.48865e+01  4.99559e+00  1.75578e+01
       O  5.35809e+01  3.42742e+00  1.86716e+01
       C  3.12297e+01  3.72289e+01  1.32307e+01
       O  3.21795e+01  3.75188e+01  1.38346e+01
       O  3.02799e+01  3.69390e+01  1.26274e+01
       C  2.28312e+01  1.42289e+01  2.14601e+01
       O  2.21023e+01  1.43308e+01  2.23599e+01
       O  2.35524e+01  1.41195e+01  2.05551e+01
       C  2.53496e+01  4.38554e+01  5.40605e+00
       O  2.64314e+01  4.35389e+01  5.68855e+00
       O  2.42675e+01  4.41718e+01  5.12269e+00
       C  1.30070e+01  4.42267e+01  5.87369e+00
       O  1.26265e+01  4.43186e+01  4.77965e+00
       O  1.33880e+01  4.41347e+01  6.96820e+00
       C  1.56342e+00  2.38502e+01  5.14782e+01
       O  1.17693e+00  2.45383e+01  5.23312e+01
       O  1.94931e+00  2.31629e+01  5.06243e+01
       C  2.95918e+01  3.34292e+01  3.20315e+01
       O  2.87292e+01  3.42057e+01  3.19613e+01
       O  3.04615e+01  3.26612e+01  3.20988e+01
       C  5.37367e+01  1.30328e+01  3.51672e+01
       O  5.31242e+01  1.23558e+01  3.44467e+01
       O  5.43541e+01  1.37083e+01  3.58832e+01
       C  2.35385e+01  3.61701e+00  5.32778e+01
       O  2.45770e+01  3.24873e+00  5.36472e+01
       O  2.24994e+01  3.98430e+00  5.29091e+01
       C  2.05966e+01  5.73319e+01  1.96357e+01
       O  2.08522e+01  5.61981e+01  1.96452e+01
       O  2.03497e+01  5.84679e+01  1.96271e+01
       C  4.54746e+01  1.33096e+01  1.17292e+01
       O  4.56771e+01  1.32984e+01  1.05848e+01
       O  4.52807e+01  1.33239e+01  1.28754e+01
       C  5.00381e+01  1.64178e+01  3.75014e+00
       O  5.11473e+01  1.65898e+01  3.44894e+00
       O  4.89285e+01  1.62458e+01  4.05042e+00
       C  3.58809e+01  9.17616e+00  1.88804e+01
       O  3.61969e+01  8.49573e+00  1.79926e+01
       O  3.55654e+01  9.85630e+00  1.97683e+01
       C  4.93901e+01  4.75379e+01  2.69862e+01
       O  4.85958e+01  4.83711e+01  2.68281e+01
       O  5.01837e+01  4.67022e+01  2.71415e+01
       C  9.30479e+00  1.31937e+01  4.97523e+01
       O  9.62578e+00  1.24854e+01  5.06172e+01
       O  8.98006e+00  1.39004e+01  4.88890e+01
       C  1.01561e+01  5.48240e+01  2.39943e+01
       O  9.08070e+00  5.43826e+01  2.39770e+01
       O  1.12271e+01  5.52754e+01  2.40175e+01
       C  3.95854e+01  2.83695e+01  5.48892e+00
       O  3.97206e+01  2.91270e+01  6.36040e+00
       O  3.94502e+01  2.76103e+01  4.61961e+00
       C  3.38737e+01  4.45242e+01  1.59786e+01
       O  3.37195e+01  4.42312e+01  1.48648e+01
       O  3.40276e+01  4.48172e+01  1.70928e+01
       C  4.70019e+01  3.98186e+01  3.34093e+01
       O  4.65645e+01  4.06633e+01  3.40772e+01
       O  4.74476e+01  3.89826e+01  3.27353e+01
       C  2.63012e+01  3.51874e+01  3.34781e+01
       O  2.65576e+01  3.43410e+01  3.42327e+01
       O  2.60370e+01  3.60375e+01  3.27303e+01
       C  1.47012e+01  1.85060e+01  3.15192e+01
       O  1.47149e+01  1.73485e+01  3.16270e+01
       O  1.46832e+01  1.96640e+01  3.14164e+01
       C  1.16250e+01  1.40366e+00  4.95536e+01
       O  1.20806e+01  6.38430e-01  5.03011e+01
       O  1.11749e+01  2.17542e+00  4.88103e+01
       C  2.21949e+01  4.63346e+01  5.67861e+00
       O  2.13792e+01  4.58583e+01  5.00129e+00
       O  2.30046e+01  4.68184e+01  6.35806e+00
       C  3.97654e+01  3.19846e+01  5.02209e+00
       O  3.96129e+01  3.12358e+01  4.14595e+00
       O  3.99173e+01  3.27352e+01  5.89601e+00
       C  5.25102e+01  5.70849e+01  1.05005e+00
       O  5.25713e+01  5.71801e+01 -1.07034e-01
       O  5.24511e+01  5.69864e+01  2.20640e+00
       C  5.47470e+01  1.86463e+01  4.94122e+01
       O  5.48617e+01  1.75090e+01  4.92035e+01
       O  5.46341e+01  1.97849e+01  4.96191e+01
       C  4.60390e+01  3.02878e+01  3.52951e+01
       O  4.53243e+01  2.95756e+01  3.58726e+01
       O  4.67549e+01  3.10006e+01  3.47207e+01
       C  3.27590e+01  5.06106e+01  1.14134e+00
       O  3.30734e+01  5.05725e+01  2.25981e+00
       O  3.24520e+01  5.06553e+01  2.11299e-02
       C  1.60380e+01  2.70587e+01  2.47363e+01
       O  1.57613e+01  2.81557e+01  2.44704e+01
       O  1.63143e+01  2.59612e+01  2.50010e+01
       C  5.08595e+01 -1.84162e-01  5.92028e+01
       O  5.08638e+01 -3.15078e-01  6.03581e+01
       O  5.08579e+01 -5.02834e-02  5.80485e+01
       C  2.55645e+01  1.67330e+01  2.33831e+01
       O  2.47935e+01  1.60477e+01  2.28463e+01
       O  2.63345e+01  1.74174e+01  2.39199e+01
       C  3.79916e+01  4.24262e+01  4.98953e+01
       O  3.79161e+01  4.30455e+01  4.89146e+01
       O  3.80783e+01  4.18026e+01  5.08726e+01
       C  5.50511e+01  5.34554e+00  5.13345e+01
       O  5.62085e+01  5.42681e+00  5.14020e+01
       O  5.38939e+01  5.26430e+00  5.12671e+01
       C  4.72289e+01  5.54852e+01  3.96767e+01
       O  4.70651e+01  5.43834e+01  3.93443e+01
       O  4.73949e+01  5.65883e+01  4.00045e+01
       C  1.95804e+01  4.24655e+01  1.73816e+01
       O  2.07372e+01  4.25290e+01  1.74711e+01
       O  1.84226e+01  4.24059e+01  1.72907e+01
       C  4.63482e+01  1.99860e+01  4.28997e+01
       O  4.61295e+01  1.99075e+01  4.40382e+01
       O  4.65683e+01  2.00641e+01  4.17609e+01
       C  1.24891e+01  5.19587e+01  2.26652e+01
       O  1.35440e+01  5.16298e+01  2.23042e+01
       O  1.14337e+01  5.22808e+01  2.30310e+01
       C  1.39650e+01  1.62465e+01  5.75380e+01
       O  1.31977e+01  1.64335e+01  5.66849e+01
       O  1.47323e+01  1.60588e+01  5.83904e+01
       C  4.60415e+01  5.92342e+01  5.77456e+01
       O  4.70165e+01  5.93129e+01  5.83738e+01
       O  4.50669e+01  5.91555e+01  5.71175e+01
       C  3.12457e+01  2.02305e+01  4.82880e+00
       O  3.11218e+01  1.92451e+01  4.22523e+00
       O  3.13693e+01  2.12160e+01  5.43216e+00
       C  5.35856e+01  6.43873e+00  2.88220e+01
       O  5.40277e+01  7.49848e+00  2.86424e+01
       O  5.31546e+01  5.37413e+00  2.89979e+01
       C  5.86537e-01  5.79893e+01  2.92553e+01
       O  4.01212e-01  5.78562e+01  3.03948e+01
       O  7.71280e-01  5.81218e+01  2.81157e+01
       C  5.17267e+01  3.31964e+00  1.49418e+01
       O  5.25476e+01  3.71409e+00  1.56641e+01
       O  5.09058e+01  2.92567e+00  1.42198e+01
       C  3.68247e+01  3.08778e+01  5.07716e+01
       O  3.79764e+01  3.10346e+01  5.07605e+01
       O  3.56725e+01  3.07237e+01  5.07791e+01
       C  7.90916e+00  1.77952e+01  1.21495e+01
       O  7.90740e+00  1.81995e+01  1.32391e+01
       O  7.91055e+00  1.73906e+01  1.10601e+01
       C  4.33175e+01  5.58670e+01  4.07858e+01
       O  4.44580e+01  5.56847e+01  4.06534e+01
       O  4.21762e+01  5.60443e+01  4.09195e+01
       C  3.81365e+01  2.74746e+01  5.21727e+01
       O  3.90098e+01  2.67091e+01  5.21224e+01
       O  3.72563e+01  2.82332e+01  5.22168e+01
       C  4.77259e+01  3.62059e+01  3.16514e+01
       O  4.86711e+01  3.64854e+01  3.10354e+01
       O  4.67808e+01  3.59153e+01  3.22634e+01
       C  4.14082e+01  2.72849e+01  5.03032e+01
       O  4.20016e+01  2.62958e+01  5.04432e+01
       O  4.08189e+01  2.82770e+01  5.01601e+01
       C  2.32239e+01  3.49055e+01  3.16180e+01
       O  2.37439e+01  3.40647e+01  3.22300e+01
       O  2.27019e+01  3.57448e+01  3.10070e+01
       C  4.55964e+01 -9.80713e-01  3.91674e+01
       O  4.46298e+01 -1.62630e+00  3.92058e+01
       O  4.65565e+01 -3.27738e-01  3.91251e+01
       C  3.12907e+01  1.88480e+00  3.33042e+01
       O  3.02249e+01  1.43491e+00  3.34160e+01
       O  3.23562e+01  2.33464e+00  3.31924e+01
       C  2.59623e+01  1.36772e+01  5.20062e+01
       O  2.63622e+01  1.46948e+01  5.24016e+01
       O  2.55617e+01  1.26597e+01  5.16135e+01
       C  5.23094e+01  1.22362e+01  3.14451e+01
       O  5.13568e+01  1.15723e+01  3.14990e+01
       O  5.32605e+01  1.29022e+01  3.13864e+01
       C  1.57020e+01  1.20165e+01  4.71497e+01
       O  1.49000e+01  1.16685e+01  4.79160e+01
       O  1.65031e+01  1.23648e+01  4.63836e+01
       C  6.51156e+00  3.90777e+01  5.36753e+01
       O  6.75946e+00  3.97271e+01  5.46069e+01
       O  6.26257e+00  3.84272e+01  5.27449e+01
       C  6.32264e+00  5.37212e+01  2.29213e+01
       O  5.98058e+00  5.32160e+01  2.39107e+01
       O  6.65347e+00  5.42252e+01  2.19275e+01
       C  5.02526e+01  8.15678e+00  3.05483e+01
       O  4.94796e+01  8.74391e+00  3.11874e+01
       O  5.10233e+01  7.56672e+00  2.99088e+01
       C  2.71270e+01  5.73612e+01  4.29710e+01
       O  2.78044e+01  5.83046e+01  4.29335e+01
       O  2.64488e+01  5.64178e+01  4.30076e+01
       C  5.68822e+01  1.73397e+01  2.50358e+01
       O  5.75093e+01  1.74376e+01  2.40618e+01
       O  5.62540e+01  1.72444e+01  2.60091e+01
       C  5.05662e+01  2.72320e+01  4.51893e+01
       O  5.02533e+01  2.61652e+01  4.55286e+01
       O  5.08822e+01  2.82972e+01  4.48468e+01
       C  2.68478e+00  5.03715e+01  5.04266e+01
       O  1.71945e+00  4.99242e+01  5.08941e+01
       O  3.65023e+00  5.08189e+01  4.99593e+01
       C  4.15478e+01  1.25438e+01  1.21424e+01
       O  4.25259e+01  1.26183e+01  1.15184e+01
       O  4.05692e+01  1.24747e+01  1.27657e+01
       C  3.45771e+01  4.43686e+01  5.12259e+01
       O  3.37295e+01  4.50730e+01  5.15951e+01
       O  3.54310e+01  4.36696e+01  5.08600e+01
       C  5.05541e+01  1.35646e+01  3.79133e+01
       O  5.11697e+01  1.32347e+01  3.69841e+01
       O  4.99401e+01  1.38954e+01  3.88429e+01
       C  1.19067e+01  5.97883e+01  3.73677e+01
       O  1.07994e+01  5.96332e+01  3.70507e+01
       O  1.30142e+01  5.99431e+01  3.76841e+01
       C  3.97143e+01  5.60043e+01  4.27616e+01
       O  4.04988e+01  5.56501e+01  4.35437e+01
       O  3.89255e+01  5.63502e+01  4.19813e+01
       C -1.27128e-01  1.85883e+01  2.25206e+01
       O -1.02877e-01  1.93576e+01  2.33917e+01
       O -1.45994e-01  1.78206e+01  2.16479e+01
       C  9.63925e+00  2.07062e+01  5.40705e+01
       O  1.02865e+01  2.16699e+01  5.41392e+01
       O  8.98600e+00  1.97480e+01  5.39958e+01
       C  5.33308e+01  2.13572e+01  3.58343e+00
       O  5.41718e+01  2.17058e+01  2.86138e+00
       O  5.24892e+01  2.10088e+01  4.30556e+00
       C  5.90857e+01  2.10252e+00  4.24354e+01
       O  6.02112e+01  2.39175e+00  4.24527e+01
       O  5.79604e+01  1.81289e+00  4.24177e+01
       C  4.66347e+01  3.12643e+01  5.57954e+01
       O  4.55288e+01  3.12294e+01  5.61505e+01
       O  4.77409e+01  3.12992e+01  5.54403e+01
       C  4.60377e+01  1.57059e+01  3.34622e+00
       O  4.56488e+01  1.59616e+01  4.41123e+00
       O  4.64166e+01  1.54493e+01  2.27759e+00
       C  4.41184e+01  2.75971e+01  3.37160e+01
       O  4.34384e+01  2.68619e+01  3.43053e+01
       O  4.47984e+01  2.83313e+01  3.31242e+01
       C  1.12621e+01  4.74381e+01  5.93222e+01
       O  1.19838e+01  4.81049e+01  5.99427e+01
       O  1.05397e+01  4.67721e+01  5.87012e+01
       C  3.62311e+01  1.87439e+01  3.87717e+01
       O  3.71643e+01  1.80520e+01  3.87278e+01
       O  3.52992e+01  1.94367e+01  3.88151e+01
       C  4.47936e+01  1.96272e+00  1.80052e+01
       O  4.37897e+01  1.38020e+00  1.79429e+01
       O  4.57973e+01  2.54536e+00  1.80655e+01
       C  4.81503e+01  2.93443e+01  4.33022e+01
       O  4.79758e+01  2.83325e+01  4.38474e+01
       O  4.83217e+01  3.03550e+01  4.27550e+01
       C  2.86863e+01  9.32314e+00  3.69489e+01
       O  2.94023e+01  9.94427e+00  3.76213e+01
       O  2.79715e+01  8.70125e+00  3.62759e+01
       C  1.93445e+01  1.30019e+01  3.93098e+01
       O  1.82778e+01  1.34633e+01  3.93328e+01
       O  2.04109e+01  1.25406e+01  3.92876e+01
       C  9.85592e+00  1.44056e+01  5.31891e+01
       O  1.00391e+01  1.37364e+01  5.41216e+01
       O  9.67325e+00  1.50759e+01  5.22573e+01
       C  1.82451e+01  1.77909e+01  3.18638e+01
       O  1.76096e+01  1.85916e+01  3.24176e+01
       O  1.88854e+01  1.69906e+01  3.13144e+01
       C  1.22679e+01  1.10882e+01  4.92644e+01
       O  1.17777e+01  1.18370e+01  4.85213e+01
       O  1.27481e+01  1.03390e+01  5.00113e+01
       C  5.24095e+01  3.93701e+01  1.16674e+01
       O  5.20109e+01  3.88264e+01  1.07205e+01
       O  5.28064e+01  3.99112e+01  1.26164e+01
       C  1.62922e+01  3.69710e+01  4.64127e+01
       O  1.53781e+01  3.75619e+01  4.60048e+01
       O  1.72060e+01  3.63803e+01  4.68204e+01
       C  5.93728e+01  3.00079e+01  4.25833e+01
       O  5.97134e+01  3.10168e+01  4.21180e+01
       O  5.90318e+01  2.89992e+01  4.30491e+01
       C  2.79386e+01  1.27244e+01  3.05945e+01
       O  2.84719e+01  1.23525e+01  3.15580e+01
       O  2.74056e+01  1.30952e+01  2.96309e+01
       C  1.24480e+01  1.94500e+01  5.67361e+01
       O  1.15215e+01  1.94694e+01  5.60341e+01
       O  1.33715e+01  1.94214e+01  5.74417e+01
       C  1.24587e+01  9.13209e+00  3.33992e+01
       O  1.16244e+01  8.88726e+00  3.26282e+01
       O  1.32919e+01  9.37629e+00  3.41719e+01
       L  1.03867e-02  7.44262e-05  9.47875e-05
       L  2.74139e-05 -3.00175e-02  9.47875e-05
